<?xml version="1.0" encoding="UTF-8"?>

<!-- generated on 03/29/21 15:38:35 by Eclipse SUMO duarouter Version 1.8.0
<configuration xmlns:xsi="http://www.w3.org/2001/XMLSchema-instance" xsi:noNamespaceSchemaLocation="http://sumo.dlr.de/xsd/duarouterConfiguration.xsd">

    <input>
        <net-file value="C:\Rijeka\rijeka.net.xml"/>
        <route-files value="C:\Rijeka\Intervali\00-06\od_trips.odtrips.xml"/>
    </input>

    <output>
        <output-file value="od_route_file.odtrips.rou.xml"/>
        <alternatives-output value="od_route_file.odtrips.rou.alt.xml"/>
    </output>

    <processing>
        <repair value="true"/>
        <repair.from value="true"/>
        <repair.to value="true"/>
    </processing>

    <report>
        <xml-validation value="never"/>
        <xml-validation.routes value="never"/>
        <ignore-errors value="true"/>
        <no-step-log value="true"/>
    </report>

</configuration>
-->

<routes xmlns:xsi="http://www.w3.org/2001/XMLSchema-instance" xsi:noNamespaceSchemaLocation="http://sumo.dlr.de/xsd/routes_file.xsd">
    <vehicle id="2066" depart="3.69" departLane="free" departSpeed="max" fromTaz="47" toTaz="47">
        <route edges="--200766 -201681 -201398#5 -201398#6 -201398#7 -201398#8 -201398#1 -202273 --201990"/>
    </vehicle>
    <vehicle id="627" depart="18.97" departLane="free" departSpeed="max" fromTaz="25" toTaz="12">
        <route edges="-200987 --200987 -202032#0 -202032#1 -200648 -202017 -201098 -202275 -201954 -200458 -202121 -202048#0 -202048#1 -202145 -201627 -200457 -200901 -201449 -201468 -201320 -201320-AddedOffRampEdge -200328 -201784 -202743 -201061 -201982 -200710#0 -201164#0 -202317#1 -200447#0 -200447#1 --202199#1 --200666 --202091 -202694 -200470 -201309#5 -201105 -201933 -201130#1 -201286 -201564 -200313 -202157#0 --202672#2 --202672#0 --202210 -201537 -202814 -200625 -202515 -200664 -201664 -200392 -200568 -201626 -201381 -202934 -200971 -201924 -200712 -202488 -202653 -202720 -200476 -202376 -202375 -202828 -202605 -202331 -202674 -200787#0"/>
    </vehicle>
    <vehicle id="248" depart="52.47" departLane="free" departSpeed="max" fromTaz="16" toTaz="47">
        <route edges="-200290#0 --201518 -202297#1 -200674#1 -201155#0 -200377 -202381 -200837 -201398#7 -201398#8 -201398#1 -202273 --201990 -201998 -201907#0 -201907#1 -200986 -200348 -201256 -202446#0 -202446#1 -202446#2 -202188"/>
    </vehicle>
    <vehicle id="958" depart="63.18" departLane="free" departSpeed="max" fromTaz="35" toTaz="17">
        <route edges="-200383 -202588 --202243 --200383 --202230 --201561 --201212 --202806#1 --201137 --202830 --203082 --202726 --202450 --201420 --201244 --201721 --202062 --201208 --203015 --201424 --201035 --201750 --202372 --200354 --200622#2 -201456 --202977 -202277 -201139#3 -200806 -200536 -201667 -202690 -201844 -201520 -201399#4 -201399#5 -201399#6 -201399#1 -201399#2 -201399#3"/>
    </vehicle>
    <vehicle id="1299" depart="66.73" departLane="free" departSpeed="max" fromTaz="36" toTaz="38">
        <route edges="--201014 --202782 -202489 -200453#0 -200453#1 -200762 -202090#0 -202090#1 -200496 -201505 -201397#4 -200950 -200534 -201481 -201776 -203057#3 -203057#4 -203057#5 -202962 -201205 -201817 -200539 -201951 -201913 -202235 -200386 -203077 --201978 --200543 --202938 --201533#3 --201533#2 --201533#1 --201533#0 --201669#1 --200665#1 --200665#0 --200631#1 --200631#0 --201925 --202692#2 -202202#1 -201176 -201700 -200597#1 -202907 -201049#5 -201049#6 -201049#1 -201967 --200524 --203062 --201228 --200923 --202580 --201674 --200933#2 --202941 --202523 --203000 --201737 -200951 -202146 -200563 --201365#1 --201365#0 --201265 --202101#1 --202101#0 --200292#1 --200292#0 --203056 --201621#1 -200361 -201039 -201800 -202506 -200522 -201501 -202087#0 -201509 -202036 -201144#0 -202725#0 -202725#1 -201972#0 -201972#1 -200291 -200428 -200781 --202644 --201993"/>
    </vehicle>
    <vehicle id="1835" depart="73.50" departLane="free" departSpeed="max" fromTaz="44" toTaz="44">
        <route edges="-201632 -201553 -202634 -200816 --202333"/>
    </vehicle>
    <vehicle id="1473" depart="85.62" departLane="free" departSpeed="max" fromTaz="38" toTaz="38">
        <route edges="-201752#1 -201338#0 -201338#1 -200311 -201156 -202893#1 -200661#1 -200365 -201979 -203063 -202520 -201217 -200646 -201941 -201516 -201437 -201812 --201812 --201078 --201516 --201941 --200646 --201217 --202520 --203063 --201979"/>
    </vehicle>
    <vehicle id="156" depart="88.60" departLane="free" departSpeed="max" fromTaz="13" toTaz="19">
        <route edges="-200457 -200901 -201449 -201468 -201320 -201320-AddedOffRampEdge -200328 -201091 -200717-AddedOnRampEdge -200717 -201218 -201097#0 -202371 -201916#0 -201916#1 -201618-AddedOnRampEdge -201618 -203009 -202586 --200366 --201751 --202483 -201194#0 -201093 -202843#0 -202345 -200482 -200619#0 -201909#0 -200450#0 --201720#1 -200648 -202017 -202990 --202025#1 --201885#1 --200876 -201808#0 -201159 -202851 -201604#0 -201604#1 -201604#2 -200456 --202976 -202847 -203040#3 -201434 -200507 -200471 --200471"/>
    </vehicle>
    <vehicle id="83" depart="89.60" departLane="free" departSpeed="max" fromTaz="11" toTaz="35">
        <route edges="-203069 --203061#0 --201945#1 --201945#0 --202258 -200759 -201870 -201618-AddedOnRampEdge -201618 -203009 -202586 --200366 --201751 --202483 -201194#0 -201093 -202843#0 -202345 -200482 -200619#0 -201909#0 -200450#0 --201720#1 -200648 -202017 -201098 --200279 --201324#2 --201324#0 -201295#0 --201530#1 --201530#0 --200343#2 --200343#1 -200340 -200954 -200368 -201625 -201567 -200699 -202042 -201166 -201702 -202967 -202601 -202642#0 -201045 -202984 -201785 -200587#0 -200622#0 -200354 -201617 -201750 -201035 -201424 -203015 -201208 -202062 -201721 -201244 -201420 -202450 -200953 -203082 -202830 -201137 -202806#0 -201212 -201561 -202230 -200383 -202588 -201947 -201277 -201113 --202045 -202045"/>
    </vehicle>
    <vehicle id="758" depart="92.51" departLane="free" departSpeed="max" fromTaz="28" toTaz="28">
        <route edges="--201474 --200612 --202081#1 -200505 -202992#3 -202992#4 -202992#5 -202992#6 -202992#1 -201109"/>
    </vehicle>
    <vehicle id="808" depart="95.19" departLane="free" departSpeed="max" fromTaz="29" toTaz="43">
        <route edges="--201874 --202766#1 --201199#1 --200465#1 --202341 -200816 -200754 -201499 -200298 -201554#1 -200753 --203078"/>
    </vehicle>
    <vehicle id="1591" depart="103.47" departLane="free" departSpeed="max" fromTaz="4" toTaz="3">
        <route edges="-201226#0 -200478 -200478-AddedOffRampEdge -200976#1"/>
    </vehicle>
    <vehicle id="323" depart="109.27" departLane="free" departSpeed="max" fromTaz="18" toTaz="1">
        <route edges="--202590 -201637#1 -200471 -200832#2 -201234 -200980 -200592#5 -201579 --201866"/>
    </vehicle>
    <vehicle id="2003" depart="111.09" departLane="free" departSpeed="max" fromTaz="47" toTaz="35">
        <route edges="-202446#2 --202446#2 --202446#1 --202446#0 -201282 -201203#0 -201203#1 --200986 --201686 --201907#0 --201998 --202576 -201985 -201398#3 -201398#4 -201398#5 -201114 --201243 --201819 -201155#1 -200674#3 -202297#0 -202909 -200290#1 -200460#4 -202464#0 -202141 -202687 -201263#1 -202352#3 -202352#4 -202352#5 -200968#0 --201083 -203011#1 -202945#1 --201028 -202326 --202540#1 --202540#0 --201473#0 --202206 -202206 -201473#0"/>
    </vehicle>
    <vehicle id="1038" depart="114.32" departLane="free" departSpeed="max" fromTaz="35" toTaz="35">
        <route edges="--201947 -201947 -201277 -201113 --202045 -202045 -200578 --201277"/>
    </vehicle>
    <vehicle id="51" depart="121.78" departLane="free" departSpeed="max" fromTaz="11" toTaz="11">
        <route edges="-202934 -200971"/>
    </vehicle>
    <vehicle id="305" depart="130.11" departLane="free" departSpeed="max" fromTaz="17" toTaz="42">
        <route edges="-200354 -201617 -201750 --201750 --202372 --200354 --200622#2 -201456 --202977 -202277 -201139#3 -201139#4 -201139#5 -201068 -202574 --202545#1 --202945#1 -202095#0 -201196#0 -202554 --202807#0 --201066#2 -200982"/>
    </vehicle>
    <vehicle id="2344" depart="163.83" departLane="free" departSpeed="max" fromTaz="9" toTaz="36">
        <route edges="--201149 -201051#2 -201051#0 -201051#1 -202513 -200770#1 -202857#0 -200761 -200443#0 -200443#1 -202346 -202724 -201710 -201019 -202010 -201134 -202468 -202734 -202337 -200743 -202837 -202755 -202460 -201428 -200349#0 -200349#1 -201666 -202101#1 -201265 -201365#0 -201365#1 -201161 -202549 -202752 -200695 -201737 -201610 -201601 -200341 -200933#0 -201674 -202580 -200923 -201228 -203062 -200524 -203060 -201049#3 -201049#4 -201049#5 -200676 -202458#0 -202458#1 -201385 -201454 -202490 -202692#0 -202692#1 -202692#2 -201925 -200631#0 -200631#1 -200665#0 -200665#1 -201669#1 -201533#0 -201533#1 -201533#2 -201533#3 -202938 -200543 -200850 -200493 --200905 --202745 --200352 --200730 --201167 -201167 -200730 -200352 -202745"/>
    </vehicle>
    <vehicle id="1420" depart="175.40" departLane="free" departSpeed="max" fromTaz="38" toTaz="38">
        <route edges="--203080 --202471 -202471 -203080 -201526 -200407 -202254 -200365 -201979 -203063 -202520 -201217 -200646 -201941 -201516 -201437 -201812 -202534 -202514"/>
    </vehicle>
    <vehicle id="875" depart="179.28" departLane="free" departSpeed="max" fromTaz="31" toTaz="4">
        <route edges="-202375 -202828 -202605 -202331 -202674 -200787#0 -201699#0 --200469#1 -201662 -202899 -201169 -200323 --200987 -202032#0 -202032#1 -200648 -202017 -201098 -202275 -201954 -200458 -202121 -202048#0 -202048#1 -202145 -201627 -200457 -200901 -201449 -201468 -201320 -201320-AddedOffRampEdge -200328 -201784 -202743 -201061 -201982"/>
    </vehicle>
    <vehicle id="2219" depart="187.96" departLane="free" departSpeed="max" fromTaz="48" toTaz="48">
        <route edges="--200504#0 --202433 --201119 --202600 --201635 -202905 -201754 -201347 -200998 -201463 --201463 --200998 --201347 --201754 --200271 -202701 -202600 -201939 -202433 -200504#0 -202390 -202382 -201057 -202106 -200794 -200834 --200838 --200794 --202106 --201057 --202382 --202390"/>
    </vehicle>
    <vehicle id="194" depart="210.76" departLane="free" departSpeed="max" fromTaz="16" toTaz="16">
        <route edges="-202315#1 -200460#2 -200290#0 --201518 -202297#1 -200674#1 -201155#0 -200377 --201819 -201155#1"/>
    </vehicle>
    <vehicle id="1368" depart="216.05" departLane="free" departSpeed="max" fromTaz="38" toTaz="38">
        <route edges="--201708 --201101 -200907 -201708 -202809 -202619#0 -200640 -202219 -202007 -202892 -202680 -202570#0 -202570#1 -201264 -202627 -200297 -201762#1 -202730 -201092 -201375#1 -202848 --202153"/>
    </vehicle>
    <vehicle id="1405" depart="224.98" departLane="free" departSpeed="max" fromTaz="38" toTaz="38">
        <route edges="-200428 -200781 --201842 --200428 --200291 --200678 --201972#0 --202935 -202982 -201024#1 --200891 --202514 --202534 --201812 --201078 --201516 --201941 --200646 --201217 --202520 --203063 --201979 --200365 --202494 --200661#0 -202893#1"/>
    </vehicle>
    <vehicle id="2077" depart="225.90" departLane="free" departSpeed="max" fromTaz="47" toTaz="47">
        <route edges="-201398#7 -201398#8 -201398#1 -202273 --201990 -201998 -201907#0 -201907#1 --201686"/>
    </vehicle>
    <vehicle id="1749" depart="228.86" departLane="free" departSpeed="max" fromTaz="42" toTaz="42">
        <route edges="--201319 -201319 -202918 -202343 -201211 -201066#1 -201066#2"/>
    </vehicle>
    <vehicle id="2156" depart="246.36" departLane="free" departSpeed="max" fromTaz="48" toTaz="42">
        <route edges="--202382 --202390 --200504#0 --202433 --201119 --202600 --201635 -202905 -201754 -201347 -200998 -201463 -200490 -203019 -201524 -201632 -201553 -202634 -202341 -200465#1 -201199#0 -202766#0 -202766#2 -200402 --201945#1 --201945#0 --202258 -200759 -201870 -201618-AddedOnRampEdge -201618 -203009 -202586 --200366 --201751 --202483 -201194#0 -201093 -202843#0 -202345 -200482 -200619#0 -201909#0 -200450#0 --201720#1 -200648 -202017 -201098 --200279 --201324#2 --201324#0 -201295#0 --201530#1 --201530#0 --200343#2 --200343#1 -200340 -200954 -200368 -201625 -201567 -200699 -202042 -201166 -201702 -202967 -202601 -202855 -202482 -201831 -201493 -200359#0 -200503 -202198 -201529 -203081 -202234 -201950 -200660 --202667 --201430"/>
    </vehicle>
    <vehicle id="716" depart="251.89" departLane="free" departSpeed="max" fromTaz="28" toTaz="19">
        <route edges="-201604#2 -200456 --202976 -202847 -203040#3 -203040#4 -203040#5 -200983 -202118 -201642#1 -200515#3"/>
    </vehicle>
    <vehicle id="472" depart="262.38" departLane="free" departSpeed="max" fromTaz="20" toTaz="17">
        <route edges="-201473#1 -202540#1 --202326 -200734 -202545#1 --202574 -202910 -201139#7 -200948 -202977 -202919#0 -200622#0 -200354 -201617 -201750 --201750 --202372 --200354"/>
    </vehicle>
    <vehicle id="769" depart="265.27" departLane="free" departSpeed="max" fromTaz="28" toTaz="47">
        <route edges="-202027 -201157 -202992#1 -202992#2 -202992#3 -202802 -202845 -202503 -201330 -202624 -200566 -202903 -202760 -200542 -200427 -201567 -200699 -202042 -201166 -201702 -202967 -202601 -202855 -202482 -201831 -201493 -200359#0 -200503 -202198 -201529 -203081 -202234 -201950 -200660 --202667 --201430 -202467"/>
    </vehicle>
    <vehicle id="1872" depart="271.60" departLane="free" departSpeed="max" fromTaz="44" toTaz="48">
        <route edges="-200333 -200338 -201598 --201786 --200338 -200598 -201132 -202775#0 -202775#1 -201180 -200705 -202491 -200511 -201409 -200429 -201120 -202712 -201690 -201312 -202125 -202757 -202284 -200960 -200312 -201088 -202338 -201548 -202412 -202866 --203050 --202801 --200426 --200700 --202555"/>
    </vehicle>
    <vehicle id="1223" depart="287.53" departLane="free" departSpeed="max" fromTaz="35" toTaz="9">
        <route edges="-201113 --202045 -202045 -200578 --201277 --201947 --202243 --200383 --202230 --201561 --201212 --202806#1 --201137 --202830 --203082 --202726 --202450 --201420 --201244 --201721 --202062 --201208 --203015 --201424 --201035 --201750 --202372 --200354 --200622#2 --200587#2 --202884 --202984 -201042 -202478 -201487 -200553 -201293 -201000 -200878 -200708 -201912 -200621 -201004 -201062 -201288 -201245#0 -201530#1 --201295#1 --202552 -201324#1 -201712#0 -202275 -201954 -200458 -202121 -202048#0 -202048#1 -202145 -201627 -200457 -200901 -201449 -201468 -201320 -201320-AddedOffRampEdge -201388 -201514#1-AddedOnRampEdge -201514#1 -201170 -201823#0 -200549#0 -200549#1 -201129 -200423 -201787#1"/>
    </vehicle>
    <vehicle id="1625" depart="290.88" departLane="free" departSpeed="max" fromTaz="40" toTaz="47">
        <route edges="-201067 --202120 --201899 --201600 --202446#2 --202446#1 --202446#0 -201282 -201203#0 -201203#1 --200986 --201686 --201907#0 --201998 --202576 -201985 -201398#3 -201398#4 -201398#5 -201398#6"/>
    </vehicle>
    <vehicle id="2319" depart="292.52" departLane="free" departSpeed="max" fromTaz="9" toTaz="11">
        <route edges="--201828 -202330 -203043 -200550 --202330 -201005 -201782 -200913 -200703 -202144 -202210 -202672#0 -202672#1 --202157#1 --200313 --201564 --201286 --201130#1 --201933 -202038 -201309#1 -201309#2 -201309#3 -201309#4"/>
    </vehicle>
    <vehicle id="129" depart="321.07" departLane="free" departSpeed="max" fromTaz="12" toTaz="20">
        <route edges="-202626 -202702 -201096 -201723 -202647#0 -200662 --201648#1 --201953 --200987 -202032#0 -202032#1 -200648 -202017 -201098 --200279 -201578#1 -201578#3 -201544 -200974 -201334 -202511 -200910 -200797 -201871 -201688"/>
    </vehicle>
    <vehicle id="82" depart="322.82" departLane="free" departSpeed="max" fromTaz="11" toTaz="31">
        <route edges="-200971 -201924 -200712 -202488 -202653 -202720 -200476 -202376 -202375 -202828 -202605 -202331 -202674 -200787#0 -201699#0 --200469#1 -201662 -202899 -201169 -200323 --200987 -202032#0 -200350#0 -201720#1 --200450#1 --201909#1 --200619#1 --200482 -200391 -202060#0 --202843#0 --201093 --201194#1"/>
    </vehicle>
    <vehicle id="2121" depart="329.76" departLane="free" departSpeed="max" fromTaz="48" toTaz="23">
        <route edges="--201655 -202780 -202000 -202555 -200700 -200426 -201496 -203017 -200552 -201262 -201879 -202676 -201077 -201562 -201023 -201183 -202349 -200895 -202067 -200812 -201740 -202705 -202956 -200840 -200740 -200468 -201585 -203010 -202342 -201970 -202251 -202784 -202915 -200557 -202212"/>
    </vehicle>
    <vehicle id="1277" depart="332.06" departLane="free" departSpeed="max" fromTaz="36" toTaz="36">
        <route edges="-201471 -202351 -201333 -202370 -201591 -202077 -203018 -202758 -201510 -202535 -201233 -202263 -202279 -201305 --200439 -201891#1 -202958 -202917 -203057#5 -202962 -201205 -201817 -200539 -201951 -201913 -202235 -200386"/>
    </vehicle>
    <vehicle id="383" depart="339.76" departLane="free" departSpeed="max" fromTaz="19" toTaz="17">
        <route edges="-200832#2 -201234 -200416 --202576 -201985 -201398#3 -201398#4 -201398#5 -201114 --201243 --201819 -201155#1 -200674#3 -202297#0 -202909 -200290#1 -200460#4 -202464#0 -202141 -202687 -201263#1 -202352#3 -202352#4 -202352#5 -200968#0 --201083 -203011#1 -202945#1 -202545#1"/>
    </vehicle>
    <vehicle id="2125" depart="348.12" departLane="free" departSpeed="max" fromTaz="48" toTaz="28">
        <route edges="--200838 --200794 --202106 --201057 --202382 --202390 --200504#0 --202433 --201119 --202600 --201635 -202905 -201754 -201347 -200998 -201463 -200490 -203019 -201524 -201632 -201553 -202634 -202341 -200465#1 -201199#0 -202766#0 -202766#2 -200402 --201945#1 --201945#0 --202258 -200759 -201870 -201618-AddedOnRampEdge -201618 -203009 -202586 --200366 --201751 --202483 -201194#0 -201093 -202843#0 -202345 -200482 -200619#0 -201909#0 -200450#0 --201720#1 -200648 -202017 -202990 --202025#1 --201885#1 --200876 --201895#1 --201517#2 --201517#1 -202027 -201157 -202992#1 -202992#2 -202992#3 -202802"/>
    </vehicle>
    <vehicle id="268" depart="350.79" departLane="free" departSpeed="max" fromTaz="17" toTaz="17">
        <route edges="-202464#0 -202141 -202687 -201263#1 -202352#3 -202352#4 -202352#5 -202352#6 -202352#7 -202571 --200874 --202079#1 --202079#0"/>
    </vehicle>
    <vehicle id="2092" depart="352.80" departLane="free" departSpeed="max" fromTaz="47" toTaz="47">
        <route edges="-200786 -203036 -201256 -201282 -201203#0 -201203#1 --200986 --201686 --201907#0 --201998 -201998"/>
    </vehicle>
    <vehicle id="403" depart="355.36" departLane="free" departSpeed="max" fromTaz="19" toTaz="19">
        <route edges="--201642#0 -200309 -203040#1 -200580 -202675 --200456 --201855 -201604#2 -200456"/>
    </vehicle>
    <vehicle id="1694" depart="361.68" departLane="free" departSpeed="max" fromTaz="42" toTaz="35">
        <route edges="-200660 --200384 --201950 --201237 --203081 --202272 -200925 -201868 -201588#0 -200605 -200613 -201890#0 -202477 -201332 -202887 -200863 -202180 -202984 -201785 -200587#0 -200622#0 -200354 -201617 -201750 -201035 -201424 -203015 -201208 -202062 -201721 -201244 -201420 -202450 -200953 -203082 -202830 -201137 -202806#0 -201212 -201561 -202230 -200383 -202588 -201947 -201277 -201113 --202045 -202045"/>
    </vehicle>
    <vehicle id="64" depart="417.29" departLane="free" departSpeed="max" fromTaz="11" toTaz="24">
        <route edges="-200819 -202649 -203054 -203020 -202507 -201616#2 -200993 -200620 -202199#0 --200447#2 --200447#0 --202317#1 --201164#1 --200710#1 --202844#1 --200688 -202769 -201797 -200717-AddedOnRampEdge -200717 -201218 -201097#0 -201707 -201827 -200903 -202811#0 -202084#0 -202698 -202592 -202152 -201372 -202048#1 -202145 -201627 -200457 -200901 -201449 -201468 -201320 -201320-AddedOffRampEdge -200328 -201784 -202743"/>
    </vehicle>
    <vehicle id="1312" depart="420.35" departLane="free" departSpeed="max" fromTaz="36" toTaz="46">
        <route edges="-202692#2 --202692#2 -202202#1 -201176 -201700 -200597#1 -202907 -201049#5 -201049#6 -201049#1 -201967 --200524 --203062 --201228 --200923 --202580 --201674 --200933#2 --202941 --202523 --203000 --201737 -200951 -202146 -200563 --201365#1 --201365#0 --201265 --202101#1 --202101#0 --200292#1 --200292#0 --203056 --201621#1 --201621#0 --203058 --201224 -200908 -202975 -201713 -201099 --202883 --200955 --202373 --200752 -201488#0 -200444 -200444-AddedOffRampEdge -202861#0 -202861#1-AddedOnRampEdge -202861#1 -202231 -202957 -202119 -202696 -200946 --202932 --202425 --201682 --200828 -200519 -201465 -201111#2 -201111#3 -202639 -201875 --200934 --200399 --200462"/>
    </vehicle>
    <vehicle id="1870" depart="422.97" departLane="free" departSpeed="max" fromTaz="44" toTaz="48">
        <route edges="--202715 --201553 --201632 --201524 --203019 -200351#1 -202284 -200960 -200312 -201088 -202338 -201548 -202412 -202866 --203050 --202801 -202801"/>
    </vehicle>
    <vehicle id="365" depart="425.10" departLane="free" departSpeed="max" fromTaz="18" toTaz="47">
        <route edges="--202594 -200416 -201998 -201907#0 -201907#1 -200986 -200348 -201256 -202446#0 -202446#1 --202446#1"/>
    </vehicle>
    <vehicle id="829" depart="428.84" departLane="free" departSpeed="max" fromTaz="3" toTaz="47">
        <route edges="-202542#0 -201717-AddedOnRampEdge -201717 -201226#0 -201376#0 --202844#1 --200688 -202769 -201797 -200717-AddedOnRampEdge -200717 -201218 -201097#0 -202371 -201916#0 -201916#1 -201618-AddedOnRampEdge -201618 -203009 -202586 --200366 --201751 --202483 -201194#0 -201093 -202843#0 -202345 -200482 -200619#0 -201909#0 -200450#0 --201720#1 -200648 -202017 -202990 --202025#1 --201885#1 --200876 -201808#0 -201159 -202851 -201604#0 -201604#1 -201604#2 -200456 --202976 -202847 -203040#3 -201434 -200507 -200471 -200832#2 -201234 -200416 -201998 -201907#0 --201907#0"/>
    </vehicle>
    <vehicle id="1322" depart="444.91" departLane="free" departSpeed="max" fromTaz="36" toTaz="9">
        <route edges="-201014 --201014 --202782 -202489 -200453#0 -200453#1 -200762 -202090#0 -202090#1 -200496 -201505 -201397#4 -200950 -200534 -201481 -201776 -203057#3 -203057#4 -203057#5 -202962 -201205 -201817 -200539 -201951 -201913 -202235 -200386 -203077 --201978 --200543 --202938 --201533#3 --201533#2 --201533#1 --201533#0 --201669#1 --200665#1 --200665#0 --200631#1 --200631#0 --201925 --202692#2 -202202#1 -201176 -201700 -200597#1 -202907 -201049#5 -201049#6 -201049#1 -201967 --200524 --203062 --201228 --200923 --202580 --201674 --200933#2 --202941 --202523 --203000 --201737 -200951 -202146 -200563 --201365#1 --201365#0 --201265 --202101#1 --202101#0 --200292#1 --200292#0 --203056 --201621#1 --201621#0 --203058 --201224 -200908 -202975 -201713 -201099 --202883 --200955 --202373 --200752 -201488#0 -200444 -200444-AddedOffRampEdge -202861#0 -202861#1-AddedOnRampEdge -202861#1 -202231 -202957 -202119 -202696 -202429 -200860 -201673 -201404 -202015 -200301 -200972 -200722 -201545 -201914 --200761 -202857#1 --201543 --200770#0 --202444 -201416 -201787#2 -202403 -200423 -201592"/>
    </vehicle>
    <vehicle id="1100" depart="453.10" departLane="free" departSpeed="max" fromTaz="35" toTaz="35">
        <route edges="--201947 --202243 --200383 --202230 --201561 --201212 --202806#1 --201137 --202830 -201439 --202197 --200611 -201512#1 --201473#0 --202206 -202206 -201473#0"/>
    </vehicle>
    <vehicle id="1061" depart="464.31" departLane="free" departSpeed="max" fromTaz="35" toTaz="35">
        <route edges="-200358 -201277 -201113 --202045 -202045"/>
    </vehicle>
    <vehicle id="959" depart="469.00" departLane="free" departSpeed="max" fromTaz="35" toTaz="17">
        <route edges="-202588 --202243 --200383 --202230 --201561 --201212 --202806#1 --201137 --202830 --203082 --202726 --202450 --201420 --201244 --201721 --202062 --201208 --203015 --201424 --201035 --201750 --202372 --200354 --200622#2 -201456 --202977 -202277 -201139#3 -200806 -200536 -201667 -202690 -201844 --201844"/>
    </vehicle>
    <vehicle id="1581" depart="487.44" departLane="free" departSpeed="max" fromTaz="4" toTaz="16">
        <route edges="-201376#0 --202844#1 --200688 -202769 -201797 -200717-AddedOnRampEdge -200717 -201218 -201097#0 -201707 -201827 -200903 -202811#0 -202084#0 -202698 -202592 -202152 -200830 -202833 --202026 --201124 --200310 --200279 --201324#2 --201324#0 -201295#0 --201530#1 --201530#0 --200343#2 --200343#1 -200340 -202282#1 -202282#3 --201411 -202402 -202610 -202169#1 -202169#2 -202169#3 -201415 -202456 -203035#0 -203035#1 -200562#1 -202362 -201250#0 -201602 -200436 --201745 --202544 -202315#1 -200460#2 -200460#3"/>
    </vehicle>
    <vehicle id="1205" depart="490.24" departLane="free" departSpeed="max" fromTaz="35" toTaz="47">
        <route edges="--201947 --202243 --200383 --202230 --201561 --201212 --202806#1 --201137 --202830 -201439 --202197 --200611 -201512#1 -201473#1 -202540#1 --202326 -200734 --202945#1 --202945#0 --203011#0 -200968#1 -202352#7 -202352#8 -202352#1 -201263#0 --202687 --202141 -200560#0 -200460#6 -200460#1 -200460#2 -200290#0 --201518 -202297#1 -200674#1 -201155#0 -200377 -202381 -200837 -201398#7 -201398#8 -201398#1 -202273 --201990 -201998 -201907#0 -201907#1 -200986 -200348 -201256 -202446#0 -202446#1 -202446#2 -202188 -200975"/>
    </vehicle>
    <vehicle id="1976" depart="499.58" departLane="free" departSpeed="max" fromTaz="46" toTaz="48">
        <route edges="--201572 --201991 -201630 -200802#0 -200802#1 -200829 -202377#1 --201382 --202149 --202399#3 --202399#1 --202399#0 --200504#1 -202390 -202382 -201057 -202106 -200794 -200834 --200838 --200794 --202106 --201057 --202382 --202390"/>
    </vehicle>
    <vehicle id="1975" depart="502.49" departLane="free" departSpeed="max" fromTaz="46" toTaz="48">
        <route edges="--201383 --201706 -202089 -201832 -200484 -201889 -200577 -202541 -200604 -200904 -201478 -203033 -200615 -201322 -201906 -201073 -201607 -202926 -201125 -202753 -201521 -201882 -203045 -201490 -202798 -202294 -201576 -202167 -201197 -200499 -200810 -202189 -201355"/>
    </vehicle>
    <vehicle id="775" depart="503.48" departLane="free" departSpeed="max" fromTaz="28" toTaz="9">
        <route edges="--200515#0 -201790 -201649#1 -201649#2 -201649#3 -203028 -203048#0 --201436#1 -202025#0 -200857 -201098 -202275 -201954 -200458 -202121 -202048#0 -202048#1 -202145 -201627 -200457 -200901 -201449 -201468 -201320 -201320-AddedOffRampEdge -200328 -201784 -202743 -201061 -201982 -200710#0 -201164#0 -202317#1 -200447#0 -200447#1 --202199#1 --200666 --202091 -202694 -200470 -201309#5 -201105 -201933 -202335"/>
    </vehicle>
    <vehicle id="1842" depart="504.40" departLane="free" departSpeed="max" fromTaz="44" toTaz="44">
        <route edges="-200598 -201132 -202775#0 -202775#1 -201180 -200705 -202491 -200511 -201409 -200429 -201120 -202712 -201690 -201312 -202125 -200875 -202324 --200490 --201463 --200998 --201347 --201754 --200271 -202701"/>
    </vehicle>
    <vehicle id="2378" depart="514.41" departLane="free" departSpeed="max" fromTaz="9" toTaz="9">
        <route edges="--202088 --202241 --201828 -202330 -203043 -200550 --202330 -201005"/>
    </vehicle>
    <vehicle id="1186" depart="536.72" departLane="free" departSpeed="max" fromTaz="35" toTaz="42">
        <route edges="--201473#0 --202206 -202206 -201473#0 -201473#1 -202540#1 --202326 --200902 -202400 -201820#1 -202226 --200541 --201297"/>
    </vehicle>
    <vehicle id="491" depart="541.66" departLane="free" departSpeed="max" fromTaz="20" toTaz="28">
        <route edges="-200797 -201871 -201688 --201688 --201871 --201670 --200910 --202511 --200851 --200974 -202448 --202266 --201578#2 -201712#0 -202275 -201321 -202321 -200450#0 --201720#1 -200648 -202017 -202990 --202025#1 --201885#1 --200876 -201808#0 -201159 -202851 --202841 -201031 -200455 --201546"/>
    </vehicle>
    <vehicle id="2364" depart="548.26" departLane="free" departSpeed="max" fromTaz="9" toTaz="7">
        <route edges="-200550 --202330 -201005 -201782 -200913 -200703 -202144 -202210 -202672#0 -202672#1 --202157#1 --200313 --201564 --201286 --201130#1 --201933 -202038 -201309#1 -200637 --202677"/>
    </vehicle>
    <vehicle id="1722" depart="573.61" departLane="free" departSpeed="max" fromTaz="42" toTaz="42">
        <route edges="--201237 --203081 -203081 -202234 -201950 -200660 -201319 -202918 -202343 -201211 -201066#1 -201066#2 -202807#0 -202807#1 -202807#2 -202807#3 --202807#3"/>
    </vehicle>
    <vehicle id="1579" depart="578.52" departLane="free" departSpeed="max" fromTaz="4" toTaz="13">
        <route edges="--201376#2 -201376#0 --202844#1 --200688 -202769 -201797 -200717-AddedOnRampEdge -200717 -201218 -201097#0 -201707 -201827 -200903 -202811#0 -202084#0 -202698 -202592 -202152 -201372 -202048#1 -202145"/>
    </vehicle>
    <vehicle id="730" depart="605.51" departLane="free" departSpeed="max" fromTaz="28" toTaz="21">
        <route edges="-202155 --202155 -200455 --200515#0 -201790 -201649#1 -200780 --201046 -202662 -201538 -201694 -201450 --200742 -200393 -200322#1 -201575 --201958 -201703 -202169#3 -202169#4 -202169#5 -201878 --201775"/>
    </vehicle>
    <vehicle id="1208" depart="606.98" departLane="free" departSpeed="max" fromTaz="35" toTaz="47">
        <route edges="-202206 -201473#0 -201473#1 -202540#1 --202326 -200734 --202945#1 --202945#0 --203011#0 -200968#1 -202352#7 -202352#8 -202352#1 -201263#0 --202687 --202141 -200560#0 -200460#6 -200460#1 -200460#2 -200290#0 --201518 -202297#1 -200674#1 -201155#0 -200377 -202381 -200837 -201398#7 -201398#8 -201398#1 -202273 --201990 -201998 -201907#0 -201907#1 -200986 -200348 -201256 -202446#0 -202446#1 -202446#2 -201606 -201899 --200804 -201323 --201887"/>
    </vehicle>
    <vehicle id="925" depart="622.74" departLane="free" departSpeed="max" fromTaz="34" toTaz="34">